10

H     -0.943967690125   0.545000000000   0.000000000000
C      0.000000000000   0.000000000000   0.000000000000
C      1.169134295109   0.675000000000   0.000000000000
H      0.000000000000  -1.090000000000   0.000000000000
H      1.169134295109   1.765000000000   0.000000000000
C      2.459512146748  -0.070000000000   0.000000000000
C      3.628646441857   0.605000000000   0.000000000000
H      2.459512146748  -1.160000000000   0.000000000000
H      3.628646441857   1.695000000000   0.000000000000
H      4.572614131982   0.060000000000   0.000000000000
